lehigh_doug/circuit_plusmg_1.dss
clear
set defaultbasefrequency=60
new object=circuit.lehigh basekv=115 pu=1.0001 phases=3 bus1=sourcebus angle=30 mvasc3=20000 mvasc1=21000
edit object=vsource.source basekv=115 bus1=sourcebus.1.2.3 pu=1.00 r1=0 x1=0.0001 r0=0 x0=0.0001
new object=vsource.secondsource basekv=4.16 bus1=680.1.2.3 pu=1.00 r1=0 x1=0.0001 r0=0 x0=0.0001
new object=transformer.sub phases=3 windings=2 xhl=0.008 buses=[sourcebus.1.2.3,650.1.2.3] conns=[delta,wye] kvs=[115,4.16] kvas=[5000,5000] %rs=[0.0005,0.0005]
new object=transformer.reg1 phases=1 bank=reg1 xhl=0.01 kvas=[1666,1666] buses=[650.1,rg60.1] kvs=[2.4,2.4] %loadloss=0.01
new object=regcontrol.reg1 transformer=reg1 winding=2 vreg=121 band=2 ptratio=20 ctprim=700 r=3 x=9
new object=transformer.reg2 phases=1 bank=reg1 xhl=0.01 kvas=[1666,1666] buses=[650.2,rg60.2] kvs=[2.4,2.4] %loadloss=0.01
new object=regcontrol.reg2 transformer=reg2 winding=2 vreg=121 band=2 ptratio=20 ctprim=700 r=3 x=9
new object=transformer.reg3 phases=1 bank=reg1 xhl=0.01 kvas=[1666,1666] buses=[650.3,rg60.3] kvs=[2.4,2.4] %loadloss=0.01
new object=regcontrol.reg3 transformer=reg3 winding=2 vreg=121 band=2 ptratio=20 ctprim=700 r=3 x=9
new object=transformer.xfm1 phases=3 windings=2 xhl=2 buses=[633.1.2.3,634.1.2.3] conns=[wye,wye] kvs=[4.16,0.480] kvas=[500,500] %rs=[0.55,0.55] xht=1 xlt=1
new object=linecode.mtx601 nphases=3 basefreq=60 rmatrix=[0.3465|0.1560,0.3375|0.1580,0.1535,0.3414] xmatrix=[1.0179|0.5017,1.0478|0.4236,0.3849,1.0348] units=mi
new object=linecode.mtx602 nphases=3 basefreq=60 rmatrix=[0.7526|0.1580,0.7475|0.1560,0.1535,0.7436] xmatrix=[1.1814|0.4236,1.1983|0.5017,0.3849,1.2112] units=mi
new object=linecode.mtx603 nphases=2 basefreq=60 rmatrix=[1.3238|0.2066,1.3294] xmatrix=[1.3569|0.4591,1.3471] units=mi
new object=linecode.mtx604 nphases=2 basefreq=60 rmatrix=[1.3238|0.2066,1.3294] xmatrix=[1.3569|0.4591,1.3471] units=mi
new object=linecode.mtx605 nphases=1 basefreq=60 rmatrix=[1.3292] xmatrix=[1.3475] units=mi
new object=linecode.mtx606 nphases=3 units=mi rmatrix=[0.791721|0.318476,0.781649|0.28345,0.318476,0.791721] xmatrix=[0.438352|0.0276838,0.396697|-0.0184204,0.0276838,0.438352] cmatrix=[383.948|0,383.948|0,0,383.948]
new object=linecode.mtx607 nphases=1 basefreq=60 rmatrix=[1.3425] xmatrix=[0.5124] cmatrix=[236] units=mi
new object=loadshape.solar_634_shape npts=8760 interval=1 useactual=yes mult=[0.0,0.0,0.0,0.0,0.0,0.0,0.0,0.0,2.091371850363546,6.340531126762067,8.950576996654872,27.504098700780524,6.307179582269057,14.739082559394667,22.049971122914638,23.73997438610365,11.861649306928575,0.7863489154171429,0.0,0.0,0.0,0.0,0.0,0.0,0.0,0.0,0.0,0.0,0.0,0.0,0.0,0.0,5.4874791223589,13.93605787173102,19.507203368637047,0.7696731431706368,41.87516421749368,14.97340591078954,54.37250546299165,37.39139407638569,19.741239206717324,1.689715749874424,0.0,0.0,0.0,0.0,0.0,0.0,0.0,0.0,0.0,0.0,0.0,0.0,0.0,0.0,16.094132811080588,37.52537528098693,49.85538377739065,21.129928516210853,37.57540259772645,37.47506045093282,30.61585530464149,26.58405609407674,13.952733643977528,1.1040511280445444,0.0,0.0,0.0,0.0,0.0,0.0,0.0,0.0,0.0,0.0,0.0,0.0,0.0,0.0,24.492684243713192,56.1122485296056,79.66821439436849,94.37365789595556,99.9784424506692,97.33475752296879,85.62405270620255,65.63181437584385,35.768668928811884,7.026537895385579,0.0,0.0,0.0,0.0,0.0,0.0,0.0,0.0,0.0,0.0,0.0,0.0,0.0,0.0,26.634083410816256,59.424976940368424,83.61634723038613,98.27176341523364,103.62554884630592,99.96147916510807,87.4141106028706,66.63552335709474,36.10333442700039,6.859205146291328,0.0,0.0,0.0,0.0,0.0,0.0,0.0,0.0,0.0,0.0,0.0,0.0,0.0,0.0,21.046262141663718,49.83870800514414,78.12886810802722,70.0149548568436,79.14925286152463,81.64228081237731,81.9602705383193,62.185392273794385,33.66062130620183,6.29050381002255,0.0,0.0,0.0,0.0,0.0,0.0,0.0,0.0,0.0,0.0,0.0,0.0,0.0,0.0,21.364251867605727,21.213594890757975,75.80346041958339,86.94575141339544,77.86148072545394,74.5487523146911,62.837759984610294,32.12156253317515,16.96414810104486,1.8067336689145617,0.0,0.0,0.0,0.0,0.0,0.0,0.0,0.0,0.0,0.0,0.0,0.0,0.0,0.0,21.748944682533736,50.70872329510842,13.384032307708747,17.633479097421862,39.46609015450272,45.72295490671768,37.458384678686315,24.275324177879423,12.882034060425992,1.4890314562871605,0.0,0.0,0.0,0.0,0.0,0.0,0.0,0.0,0.0,0.0,0.0,0.0,0.0,0.0,22.351285076610125,51.31077617587021,27.504098700780524,58.50464682035004,45.8232970535113,21.39760341209873,27.43710809847991,22.95362547068651,11.895000851421587,5.6211728136455426,0.0,0.0,0.0,0.0,0.0,0.0,0.0,0.0,0.0,0.0,0.0,0.0,0.0,0.0,10.355942078394907,25.596735371757735,41.23947227892428,70.6842858532206,41.02182469977592,53.569480775327996,54.40585700748468,43.89954546555661,24.492684243713192,4.299474106452635,0.0,0.0,0.0,0.0,0.0,0.0,0.0,0.0,0.0,0.0,0.0,0.0,0.0,0.0,26.96874890900476,59.692651836256296,83.5496441414001,97.92042214479864,103.20721697357028,99.9784424506692,88.30080166508137,68.74357097970481,40.804464633942146,10.054628124699418,0.0,0.0,0.0,0.0,0.0,0.0,0.0,0.0,0.0,0.0,0.0,0.0,0.0,0.0,24.91101611644882,56.58089523239534,79.40053949848061,96.28102122497832,102.16986893451175,99.89448856280744,88.51844924422974,67.02021617202277,39.85078296943074,9.904258661166267,0.0,0.0,0.0,0.0,0.0,0.0,0.0,0.0,0.0,0.0,0.0,0.0,0.0,0.0,24.375666324673052,55.94520329382594,78.78152333215772,72.67502804347592,80.6719233756194,73.36103481209946,66.20051571211262,52.81648340440389,31.33521361775801,7.578563459407853,0.0,0.0,0.0,0.0,0.0,0.0,0.0,0.0,0.0,0.0,0.0,0.0,0.0,0.0,10.15497027149305,24.057676598731057,43.598231511861115,55.57689873782983,63.674423730081536,58.43794373136401,34.564275653973716,28.13979063934993,15.87677274524682,2.5930825843317047,0.0,0.0,0.0,0.0,0.0,0.0,0.0,0.0,0.0,0.0,0.0,0.0,0.0,0.0,5.353497917757662,14.371065516713154,66.75254127613489,83.2149786432116,96.11368847588409,95.34430284602806,85.1723692889739,66.5015421524935,38.763407613632715,9.803629001058043,0.0,0.0,0.0,0.0,0.0,0.0,0.0,0.0,0.0,0.0,0.0,0.0,0.0,0.0,22.167276555269364,51.51174798277207,72.65835227122942,61.44935818843135,72.22305711293271,94.03927991108164,56.83160684272212,25.965039927753853,14.538398265807409,2.626721642139312,0.0,0.0,0.0,0.0,0.0,0.0,0.0,0.0,0.0,0.0,0.0,0.0,0.0,0.0,22.919986412878906,55.125215320601185,80.47123908203214,98.0710791216464,101.80185189183024,99.19209353525206,88.08344159924759,69.3122723159736,40.586817054793784,10.573302144228675,0.0,0.0,0.0,0.0,0.0,0.0,0.0,0.0,0.0,0.0,0.0,0.0,0.0,0.0,25.028034035488965,56.37992342549348,81.57529021007667,96.61568672316685,102.63851563730152,100.06210882521631,89.80650889361503,70.3159812972245,41.3064628812249,10.90796764241718,0.0,0.0,0.0,0.0,0.0,0.0,0.0,0.0,0.0,0.0,0.0,0.0,0.0,0.0,26.400047572735982,59.190653588973554,83.01429434962435,97.20106383168213,106.48630632652552,103.75924253759257,92.21558295660601,70.53362887637286,43.39754721827385,11.895000851421587,0.0,0.0,0.0,0.0,0.0,0.0,0.0,0.0,0.0,0.0,0.0,0.0,0.0,0.0,25.914725097699733,57.80196427948001,80.82258035246714,94.64133279184344,99.81110970157495,96.81637101675413,86.31005947482605,68.0575642110813,41.23947227892428,11.091976163757938,0.0,0.0,0.0,0.0,0.0,0.0,0.0,0.0,0.0,0.0,0.0,0.0,0.0,0.0,6.67519662495057,16.713148977403485,25.31238470362335,14.454731891260279,41.90851576198669,11.175642538305066,11.660677500026717,0.16733274909425125,0.0,0.0,0.0,0.0,0.0,0.0,0.0,0.0,0.0,0.0,0.0,0.0,0.0,0.0,0.0,0.0,6.156522605421309,18.085162514650506,51.11009188228294,54.58986552882543,103.05655999672254,100.83149445507236,47.64699400798697,41.339814425717904,24.04100082648456,5.336822145511157,0.0,0.0,0.0,0.0,0.0,0.0,0.0,0.0,0.0,0.0,0.0,0.0,0.0,0.0,6.95954729308496,18.051523456842894,20.97927153936311,52.214143010327476,110.16676426665524,108.30971576768658,96.66571403990636,76.30517115355156,46.040944632659674,13.049366809520247,0.0,0.0,0.0,0.0,0.0,0.0,0.0,0.0,0.0,0.0,0.0,0.0,0.0,0.0,27.604440847574157,60.78002719205435,84.70372258618416,99.0414365584043,105.01395064248487,102.47089537489265,91.78057531162383,72.75869441802304,45.57258544318452,13.35039324990114,0.0,0.0,0.0,0.0,0.0,0.0,0.0,0.0,0.0,0.0,0.0,0.0,0.0,0.0,26.299417912627753,58.086602460929015,80.80561706690605,94.70832339414405,100.41316258233672,97.66942302115729,87.69846127100499,69.9816033123506,43.748888488708864,12.8987098326725,0.0,0.0,0.0,0.0,0.0,0.0,0.0,0.0,0.0,0.0,0.0,0.0,0.0,0.0,17.449470576081108,40.00143994627849,46.10793523496029,68.44225702600932,76.62344839280816,73.42802541440004,66.8528834229285,49.169377008767135,30.113857057358732,8.599235726219865,0.0,0.0,0.0,0.0,0.0,0.0,0.0,0.0,0.0,0.0,0.0,0.0,0.0,0.0,20.745235701282827,48.46669446789712,46.96098723936346,87.23038959484444,92.03157443526524,66.76921704838139,9.268279209282275,64.91245606272732,38.345075740897094,10.790949723377041,0.0,0.0,0.0,0.0,0.0,0.0,0.0,0.0,0.0,0.0,0.0,0.0,0.0,0.0,5.872171937286921,9.452575243937627,14.254047597673015,22.033295350668133,17.399155746026995,12.079009372762346,12.246342121856596,4.751445036995871,2.4427131207985555,0.05031483005411335,0.0,0.0,0.0,0.0,0.0,0.0,0.0,0.0,0.0,0.0,0.0,0.0,0.0,0.0,27.63779239206717,60.228001628032075,83.85067058178099,98.45577193657442,104.41161024840844,102.08620255996463,92.36623993345371,74.2310501020637,45.68960336222465,14.471407663506787,0.0,0.0,0.0,0.0,0.0,0.0,0.0,0.0,0.0,0.0,0.0,0.0,0.0,0.0,26.249390595888237,58.03628763087489,81.20727316739517,95.12665526687971,100.94879988742709,98.87410380931006,89.03683575044437,57.14959656866412,38.027373528269685,14.371065516713154,0.0,0.0,0.0,0.0,0.0,0.0,0.0,0.0,0.0,0.0,0.0,0.0,0.0,0.0,8.197579625730743,25.14505195452909,42.811882596443965,43.330556615973244,55.74423148692408,52.64915065530962,47.52997608894682,34.195971097977605,20.97927153936311,6.0228289141346645,0.0,0.0,0.0,0.0,0.0,0.0,0.0,0.0,0.0,0.0,0.0,0.0,0.0,0.0,27.621116619820665,60.71303658975372,86.04238457893818,100.79814291057936,107.0216561183013,105.1646076193326,94.45732427050268,76.13812591777189,47.412670656592105,15.826457915192707,0.0,0.0,0.0,0.0,0.0,0.0,0.0,0.0,0.0,0.0,0.0,0.0,0.0,0.0,27.72145876661429,59.106987214426425,81.99362208281231,96.08033693139109,101.81852766407677,100.2458298332425,90.77686633037294,73.47805273113957,47.3959948843456,16.127771868888196,0.0,0.0,0.0,0.0,0.0,0.0,0.0,0.0,0.0,0.0,0.0,0.0,0.0,0.0,27.52077447302703,23.873668077390302,55.99523061056545,69.57994721186147,79.40053949848061,77.77781435090681,67.00354039977628,19.18921364269505,13.869067269430401,9.151261290242136,0.0,0.0,0.0,0.0,0.0,0.0,0.0,0.0,0.0,0.0,0.0,0.0,0.0,0.0,0.0,21.263909720812087,57.333605090004866,80.4042484797315,104.76323903215807,104.67957265761095,95.91300418229685,77.99517441674055,49.219691838821255,17.31548937147987,0.0,0.0,0.0,0.0,0.0,0.0,0.0,0.0,0.0,0.0,0.0,0.0,0.0,0.0,19.87522041131856,53.000491925744626,79.28323406612589,105.90064170469564,89.48880668098762,100.59745861699207,98.75708589026993,76.70682725404069,29.64549786788359,14.421380346767268,0.0,0.0,0.0,0.0,0.0,0.0,0.0,0.0,0.0,0.0,0.0,0.0,0.0,0.0,14.622064640354534,19.406861221843414,14.622064640354534,22.033295350668133,14.588425582546925,60.91372088334098,55.47655659103621,40.26911484216638,13.986372701785132,1.9240391012692948,0.0,0.0,0.0,0.0,0.0,0.0,0.0,0.0,0.0,0.0,0.0,0.0,0.0,0.0,1.0873753557980383,7.026537895385579,10.991634016964305,39.33210894990149,47.345967567606074,22.049971122914638,31.937554011834397,13.919382099484515,8.44857874937212,15.910124289739835,0.0,0.0,0.0,0.0,0.0,0.0,0.0,0.0,0.0,0.0,0.0,0.0,0.0,0.0,6.926195748591947,6.591530250403443,25.56338382726473,50.07274384322442,45.92392671361954,57.45062300904501,62.78773266787076,75.72008155835088,48.952016942933376,17.56648849512124,0.0,0.0,0.0,0.0,0.0,0.0,0.0,0.0,0.0,0.0,0.0,0.0,0.0,0.0,5.554469724659518,14.10339062082527,26.383084287174878,98.25508764298715,36.87300757017103,36.67203576326917,41.62416509385231,31.318537845511514,0.7696731431706368,16.32845616247546,0.0,0.0,0.0,0.0,0.0,0.0,0.0,0.0,0.0,0.0,0.0,0.0,0.0,0.0,8.883586394354257,39.482765926749245,85.33970203806814,101.86884249413087,107.54033013783054,107.0216561183013,97.25137866173624,79.16621614708573,51.243785573569575,19.32319484729629,0.0,0.0,0.0,0.0,0.0,0.0,0.0,0.0,0.0,0.0,0.0,0.0,0.0,2.8274059357265755,32.5732459504038,65.01279820952095,89.07047480825199,103.17386542907728,109.0793889108572,106.80429605246748,97.1007216848885,79.36690044067299,53.000491925744626,20.310228056300694,0.0,0.0,0.0,0.0,0.0,0.0,0.0,0.0,0.0,0.0,0.0,0.0,0.0,2.8774332524660937,31.40220422005863,62.65375146326952,85.25603566352103,99.0414365584043,104.94696004018424,103.35787395041801,97.20106383168213,77.02481697998267,51.14344342677596,19.6912118899778,0.0,0.0,0.0,0.0,0.0,0.0,0.0,0.0,0.0,0.0,0.0,0.0,0.0,3.6304306233902253,33.00825359538593,65.02947398176747,90.52586720673156,101.48414967920286,107.0383318905478,89.92352681265518,85.27271143576753,65.36413947995595,51.612090129565686,11.142290993812054,0.0,0.0,0.0,0.0,0.0,0.0,0.0,0.0,0.0,0.0,0.0,0.0,0.0,0.0669906023006195,18.33616163829188,41.97550636428731,59.32463479357479,67.53889019155204,79.71824171110799,84.36934460131026,56.1122485296056,49.3533855301079,34.982320013394734,11.861649306928575,0.0,0.0,0.0,0.0,0.0,0.0,0.0,0.0,0.0,0.0,0.0,0.0,0.0,0.8030246876636492,29.54515572108996,59.24096841902765,83.01400683630973,97.50237778537763,103.5252066995123,101.93583309643151,92.95190455528362,75.13441693652099,48.08200165296911,18.586873248618666,0.0,0.0,0.0,0.0,0.0,0.0,0.0,0.0,0.0,0.0,0.0,0.0,0.0,0.0,4.400103766560862,6.240188979968437,19.791554036771434,27.688107222121282,29.52847994884345,35.75199315656538,22.76961694934576,19.758202492278425,21.02958636941722,7.812886810802723,0.0,0.0,0.0,0.0,0.0,0.0,0.0,0.0,0.0,0.0,0.0,0.0,0.0,0.0,0.4850349617216528,21.581611933439493,38.39539057095121,49.70472680054291,75.16776848101401,85.89172760209044,67.20422469336353,83.13131226866446,31.36885267556562,10.740634893322929,0.0,0.0,0.0,0.0,0.0,0.0,0.0,0.0,0.0,0.0,0.0,0.0,0.0,3.5300884765965934,10.957994959156697,23.622668953748928,41.64084086609881,57.63491904370037,111.47178720160164,107.62399651237766,98.05440334939988,80.58825700107228,54.37250546299165,21.932953203874497,0.0,0.0,0.0,0.0,0.0,0.0,0.0,0.0,0.0,0.0,0.0,0.0,0.0,4.517121685601,33.510251842668694,64.81182640261909,87.24677785377634,100.94879988742709,105.81697533014851,103.72589099309955,94.8589803709918,77.92818381443996,52.64915065530962,21.347576095359216,0.0,0.0,0.0,0.0,0.0,0.0,0.0,0.0,0.0,0.0,0.0,0.0,0.0,4.1154655851118775,12.748340369139347,53.33515742393313,64.46048513218408,99.6938042692202,104.93057178125231,103.07352328228365,94.10627051338226,77.24217704581645,52.2644578403816,20.29355228405419,0.0,0.0,0.0,0.0,0.0,0.0,0.0,0.0,0.0,0.0,0.0,0.0,0.0,1.823696954475663,6.775538771744201,33.342919093574444,31.36885267556562,43.31388084372673,59.45832848486143,48.483370240143635,61.85072677560587,30.48216161335485,9.502602560677149,0.01667577224650614,0.0,0.0,0.0,0.0,0.0,0.0,0.0,0.0,0.0,0.0,0.0,0.0,0.0,0.0,0.8700152899642687,0.4350076449821344,5.236479998717523,33.961935259897324,23.57264163700941,54.389181235238155,59.00664506763279,39.06443405401361,4.282798334206129,20.07590470490582,0.0,0.0,0.0,0.0,0.0,0.0,0.0,0.0,0.0,0.0,0.0,0.0,0.0,6.039504686381173,37.843077493614345,71.6376800044174,95.96303149903635,111.12044593116664,116.65823988357964,110.33409701574949,100.81481868282584,83.01429434962435,56.98226381956985,24.091028143224072,0.0,0.0,0.0,0.0,0.0,0.0,0.0,0.0,0.0,0.0,0.0,0.0,0.0,6.3908459568161815,37.107043408251315,68.22489696017554,90.44220083218443,103.9265752866868,109.3137122622521,107.0383318905478,97.65303476222536,80.6385718311264,55.19220592290181,23.237976138820905,0.0,0.0,0.0,0.0,0.0,0.0,0.0,0.0,0.0,0.0,0.0,0.0,0.0,4.249446789713116,33.593918217215816,52.69946548536375,72.79204596251606,88.30108917839598,88.35111649513549,88.38475555294309,52.98381615349812,37.123719180497815,50.89273181644918,22.300970246556016,0.0,0.0,0.0,0.0,0.0,0.0,0.0,0.0,0.0,0.0,0.0,0.0,0.0,2.4257498352374536,20.661569326735705,46.4256374475877,55.42652927429668,67.53889019155204,65.91616504397821,81.3412543719964,60.46203746611235,30.53218893009437,9.552917390731258,9.469251016184137,0.0,0.0,0.0,0.0,0.0,0.0,0.0,0.0,0.0,0.0,0.0,0.0,0.0,5.186165168663409,25.429690135978078,34.26296170027822,56.76490375373609,78.83155064889723,77.74446280641381,71.53733785762377,61.934393150153,59.89333612984357,34.76495994756097,8.063885934444098,0.0,0.0,0.0,0.0,0.0,0.0,0.0,0.0,0.0,0.0,0.0,0.0,0.0,2.760415333425956,15.308071408978044,40.3527812167135,41.64084086609881,52.11380086353386,63.42342460644015,73.64538548023383,65.01279820952095,57.58460421364625,41.75814629845354,12.965700434973119,0.0,0.0,0.0,0.0,0.0,0.0,0.0,0.0,0.0,0.0,0.0,0.0,0.0,7.461545540367714,37.709383802327686,67.62255656609916,89.03683575044437,101.11584512320677,109.44769346685331,106.23530720288412,95.57833868410832,77.0751318100368,50.42408511365942,21.899601659381485,0.0,0.0,0.0,0.0,0.0,0.0,0.0,0.0,0.0,0.0,0.0,0.0,0.0,8.16422808123773,40.40280853345303,72.87599985037778,96.31437276947136,110.65208674169149,116.17291740854341,113.89782455015371,93.40358797251227,85.75774639748919,54.439496065292275,26.132085163533503,0.0,0.0,0.0,0.0,0.0,0.0,0.0,0.0,0.0,0.0,0.0,0.0,0.0,7.946868015403961,36.93971065915705,63.03844427819754,96.4817055185656,109.3137122622521,113.9645276391397,110.70211405843102,98.74041011802342,76.8074569141489,51.14344342677596,21.98326803392861,0.0,0.0,0.0,0.0,0.0,0.0,0.0,0.0,0.0,0.0,0.0,0.0,0.0,8.44857874937212,3.7810876002379694,73.86274554606759,32.35588588457003,39.61645961803588,54.64018035887954,116.87559994941343,104.29459232936834,86.04238457893818,57.785288507233524,26.03174301673987,0.0,0.0,0.0,0.0,0.0,0.0,0.0,0.0,0.0,0.0,0.0,0.0,0.0,9.3519455838294,41.6074893216058,72.30701100079442,93.75464172963268,106.80429605246748,111.95682216332331,110.13341272216223,100.11213614195586,83.43233870904534,57.93594548408126,26.132085163533503,0.0,0.0,0.0,0.0,0.0,0.0,0.0,0.0,0.0,0.0,0.0,0.0,0.0,9.920934433412775,43.98321184010373,76.03778377097827,99.47644420338644,113.49616844966458,118.88330542522984,116.1562416362969,105.95095653474974,85.05535136993377,59.54199485940856,27.269775349385647,1.3886893094935284,0.0,0.0,0.0,0.0,0.0,0.0,0.0,0.0,0.0,0.0,0.0,0.0,10.03795235245291,42.912512256552205,74.56542808693763,96.4650297463191,109.0627131386107,109.74871990723422,107.49001530777642,97.65303476222536,79.93588929025637,55.794546316978185,25.12837618228259,0.9536816645113944,0.0,0.0,0.0,0.0,0.0,0.0,0.0,0.0,0.0,0.0,0.0,0.0,9.870619603358662,38.57939909229196,73.06000837171855,95.37765439052107,108.00868932730567,112.29177517482641,110.78606794629272,95.99667055684395,79.01555917023798,54.69020767561905,24.526035788206205,0.8533395177177625,0.0,0.0,0.0,0.0,0.0,0.0,0.0,0.0,0.0,0.0,0.0,0.0,10.355942078394907,42.37716246477643,72.67502804347592,94.9090076877313,107.89167140826555,113.6134738820193,111.67275900850352,101.93583309643151,84.83770379078541,57.31692931775837,26.132085163533503,1.5057072285336663,0.0,0.0,0.0,0.0,0.0,0.0,0.0,0.0,0.0,0.0,0.0,0.0,9.418936186130017,36.42103663962779,72.65835227122942,84.53638983708991,106.7206296779204,110.80274371853923,108.15934630415344,98.32207824528776,80.45456330978564,41.205833221116684,25.14505195452909,1.2713838771387955,0.0,0.0,0.0,0.0,0.0,0.0,0.0,0.0,0.0,0.0,0.0,0.0,10.539950599735665,41.22279650667778,55.86153691927882,64.66145693908594,68.69325614965071,100.64748593373159,108.77836247047631,67.12084583213101,79.40053949848061,53.8705072157089,24.8607012863947,1.1376901858521518,0.0,0.0,0.0,0.0,0.0,0.0,0.0,0.0,0.0,0.0,0.0,0.0,8.983928541147886,32.23858045221529,62.16842898823328,92.46658208024736,106.01794713705036,84.51971406484341,92.41626725019323,79.86889868795575,72.5913616689288,52.69946548536375,25.21204255682971,1.4220408539865408,0.0,0.0,0.0,0.0,0.0,0.0,0.0,0.0,0.0,0.0,0.0,0.0,7.863201640856834,28.0728000370493,28.156466411596426,16.010466436533466,43.11319655013946,58.47129527585702,108.7280476404222,98.9744459561037,82.21098214864608,57.36724414781247,25.797707178659593,1.8570484989686755,0.0,0.0,0.0,0.0,0.0,0.0,0.0,0.0,0.0,0.0,0.0,0.0,12.16267574730947,44.15054458919799,73.69570031028795,71.45367148307666,107.55700591007704,111.50513874609469,109.81542299622022,100.53018050137686,83.71668937717976,58.755645943991425,26.851730989964622,2.1917139971571777,0.0,0.0,0.0,0.0,0.0,0.0,0.0,0.0,0.0,0.0,0.0,0.0,12.698025539085233,44.04991492908976,72.22334462624728,92.04825020751173,106.77065699465989,111.77310115529713,108.7950382427228,86.39372584937317,82.66295307918931,56.34657188100047,26.784740387663998,2.175038224910672,0.0,0.0,0.0,0.0,0.0,0.0,0.0,0.0,0.0,0.0,0.0,0.0,12.530692789990985,43.2302144691796,63.205777027291795,68.45893279825583,87.7821276455521,97.85371905581265,87.4811012051712,85.07202714218026,72.5913616689288,35.66832678201825,17.0981293056461,0.8533395177177625,0.0,0.0,0.0,0.0,0.0,0.0,0.0,0.0,0.0,0.0,0.0,0.0,1.7400305799285374,7.2608612467804505,11.47666897868596,21.631926763493606,11.593974411040694,7.695868891762585,26.400047572735982,36.57169361647553,2.7770911056724628,20.694920871228714,9.820592286619142,0.01667577224650614,0.0,0.0,0.0,0.0,0.0,0.0,0.0,0.0,0.0,0.0,0.0,0.0,6.926195748591947,21.54826038894648,34.48060927942659,32.30557105451591,48.349676548856976,39.33210894990149,36.990025489211156,40.38613276120653,38.91406459048047,12.012018770461724,5.554469724659518,0.0,0.0,0.0,0.0,0.0,0.0,0.0,0.0,0.0,0.0,0.0,0.0,0.0,2.0577327925559388,8.716253645260002,32.539894405910786,47.1283199884577,79.55090896201375,109.17973105765086,88.16682046048014,85.69075579518857,80.13657358384364,34.982320013394734,16.796815351950606,1.0037089812509128,0.0,0.0,0.0,0.0,0.0,0.0,0.0,0.0,0.0,0.0,0.0,0.0,14.873063763995907,16.144447641134704,49.58770888150278,78.66450541311758,111.77310115529713,116.35692592988414,115.13585688279949,106.30229780518476,88.88646628691126,32.623560780457915,16.4624373670767,1.3550502516859213,0.0,0.0,0.0,0.0,0.0,0.0,0.0,0.0,0.0,0.0,0.0,0.0,17.733821244215495,53.686498694368154,85.03838808437266,107.37299738873631,119.6863301128935,123.88546207255251,121.76073867769594,110.38441184580358,91.51290041573596,64.34346721314395,30.113857057358732,3.279089352955216,0.0,0.0,0.0,0.0,0.0,0.0,0.0,0.0,0.0,0.0,0.0,0.0,17.516173665067132,51.76245959309885,80.85593189696017,100.71447653603222,111.72278632524305,114.78451561236449,113.93117609464672,102.70521872628755,84.72068587174525,59.74267915299583,29.026481701560694,3.128432376107471,0.0,0.0,0.0,0.0,0.0,0.0,0.0,0.0,0.0,0.0,0.0,0.0,17.298813599233362,50.30706719461929,78.27952508487495,101.6178433704895,113.5631590519652,62.77076938230966,116.32357438539114,105.54930043426062,88.18378374604124,60.62937021520659,29.712488470184212,3.730772770183857,0.0,0.0,0.0,0.0,0.0,0.0,0.0,0.0,0.0,0.0,0.0,0.0,17.047814475591984,49.42037613240851,77.77781435090681,97.87039482805912,52.5824475663236,89.52187071216605,91.16155914530096,68.57623823061056,43.79920331876297,34.07895317893747,16.813491124197117,1.589373603080792,0.0,0.0,0.0,0.0,0.0,0.0,0.0,0.0,0.0,0.0,0.0,0.0,1.8904000434616877,4.182456187412496,4.584112287901619,15.525431474811812,34.513960823919604,47.32900428204497,60.88036933884797,48.03168682291499,47.52997608894682,22.535293597950886,11.309336229591707,0.7193583131165234,0.0,0.0,0.0,0.0,0.0,0.0,0.0,0.0,0.0,0.0,0.0,0.0,0.7360340853630297,3.162071433915078,11.844686021367474,18.386188955031397,19.0388441791619,20.34357960079371,13.986372701785132,15.793106370699695,13.601392373542518,7.428193995874702,3.4297463298029616,0.0,0.0,0.0,0.0,0.0,0.0,0.0,0.0,0.0,0.0,0.0,0.0,0.0,0.3179897259419964,0.3010264403808953,5.303470601018144,8.933901224408366,15.843421200753806,11.376326831892323,13.58471660129601,8.16422808123773,16.663121660663965,13.802364180444375,6.67519662495057,0.16733274909425125,0.0,0.0,0.0,0.0,0.0,0.0,0.0,0.0,0.0,0.0,0.0,0.0,18.118514059143518,49.43705190465503,76.12145014552539,94.8256288264988,59.54199485940856,51.54509952726508,69.07794896457871,54.272163316198025,85.89172760209044,28.29044761619767,29.19381445065495,3.9147812915246134,0.0,0.0,0.0,0.0,0.0,0.0,0.0,0.0,0.0,0.0,0.0,0.0,5.03579570513026,24.727007595108066,49.70472680054291,56.98226381956985,49.73836585835053,54.25520003063693,63.77476587687517,54.74052250567316,73.41106212883895,42.02582119434142,21.54826038894648,2.9947386848208266,0.0,0.0,0.0,0.0,0.0,0.0,0.0,0.0,0.0,0.0,0.0,0.0,20.07590470490582,52.415114817229345,71.68799483447151,84.03467910312175,98.20506032624763,102.77220932858816,98.67341951572278,89.78983312136852,73.29404420979881,43.163223866878994,21.98326803392861,3.212098750654597,0.0,0.0,0.0,0.0,0.0,0.0,0.0,0.0,0.0,0.0,0.0,0.0,19.423536994089922,45.02027236584765,56.848570128283214,63.95877439821593,67.08720677432339,74.61574291699174,90.15785016405005,76.58980933500054,44.23392345043051,24.42569364141257,12.129324202816461,1.2883471626998968,0.0,0.0,0.0,0.0,0.0,0.0,0.0,0.0,0.0,0.0,0.0,0.0,9.586268935224274,23.32164251336803,36.90635911466404,99.09175138845842,109.51439655583935,114.33254468182123,111.20411230571379,102.06952678771816,84.95472170982553,58.538285878157645,14.003048474031642,4.1154655851118775,0.0,0.0,0.0,0.0,0.0,0.0,0.0,0.0,0.0,0.0,0.0,0.0,20.15957107945295,50.34041873911231,46.65996079898256,65.09646458406807,83.532680855839,109.34706380674508,105.85061438795609,96.51534457637321,80.62189605887987,57.333605090004866,16.696473205156973,2.392398290744441,0.0,0.0,0.0,0.0,0.0,0.0,0.0,0.0,0.0,0.0,0.0,0.0,3.4297463298029616,17.4158315182735,30.41517101105423,33.14223479998717,48.818035738332135,70.43328672957922,77.19214972907696,74.93344512961912,84.95500922314014,39.96780088847089,12.999051979466133,1.70639152212093,0.0,0.0,0.0,0.0,0.0,0.0,0.0,0.0,0.0,0.0,0.0,0.0,22.56864514244389,56.53058040234122,85.15569351672741,105.06426547253895,116.57457350903256,121.02470459233291,117.84595738617134,107.37299738873631,89.77315734912203,63.95877439821593,31.837211865040768,4.751445036995871,0.0,0.0,0.0,0.0,0.0,0.0,0.0,0.0,0.0,0.0,0.0,0.23432335139487076,23.053967617480144,54.97484585706804,82.59567496357411,99.125390446266,110.635410969445,114.91820930365112,116.05589948950328,101.98586041317101,84.938045937579,60.56266712622057,30.85017865603636,4.918490272775527,0.0,0.0,0.0,0.0,0.0,0.0,0.0,0.0,0.0,0.0,0.0,0.8533395177177625,24.141342973278174,56.64759832138136,83.76700420723388,102.68854295404104,113.04448503243592,116.20626895303644,113.42917784736395,103.99356588898745,87.51445274966423,62.72074206557014,32.221904679968794,5.236479998717523,0.0,0.0,0.0,0.0,0.0,0.0,0.0,0.0,0.0,0.0,0.0,0.6190161663228917,20.828902075829948,40.20212423986575,60.67968504526072,68.22489696017554,84.87105533527841,72.89238810930968,95.67868083090195,51.929792342193096,54.288839088444526,59.29099573576718,29.05983324605371,4.734481751434768,0.0,0.0,0.0,0.0,0.0,0.0,0.0,0.0,0.0,0.0,0.0,0.0,19.272880017242176,29.74584001467722,27.671431449874774,30.582503760148484,48.567036614690764,63.339758231893036,37.7427353468207,35.38397611388387,36.354333550641776,22.56864514244389,6.8425293740448225,2.7937668779189693,0.0,0.0,0.0,0.0,0.0,0.0,0.0,0.0,0.0,0.0,0.0,0.0,7.729220436255598,23.10399493421967,21.899601659381485,104.46192507846256,118.81631482292923,124.01944327715373,117.71197618157007,108.0923557018528,90.62620935352518,64.79515063037259,32.03789615862803,5.25315577096403,0.0,0.0,0.0,0.0,0.0,0.0,0.0,0.0,0.0,0.0,0.0,1.8904000434616877,26.650759183062767,61.41571913062374,91.83089014167795,112.45882041060604,124.62149615791556,128.4192595304,124.30379394528812,112.65979221750791,91.39588249669585,48.33300077661048,26.433399117228994,5.654811871453152,0.0,0.0,0.0,0.0,0.0,0.0,0.0,0.0,0.0,0.0,0.0,1.9740664180088128,26.734425557609892,60.36169531931871,88.685781993324,107.85803235045796,119.11734126331015,122.73109611445385,119.00032334426996,108.3767063699872,90.35853445763729,62.9381021314039,32.69026386944393,5.8051813349863,0.0,0.0,0.0,0.0,0.0,0.0,0.0,0.0,0.0,0.0,0.0,2.3254076884438217,27.48742292853402,60.663009273014204,87.09640839024321,105.1142927892785,115.26955057408613,118.34795563345405,114.63385863551672,104.66289688536443,88.08344159924759,63.28944340183892,32.74057869949805,5.654811871453152,0.0,0.0,0.0,0.0,0.0,0.0,0.0,0.0,0.0,0.0,0.0,2.4927404375380733,26.985424681251267,59.75935492524233,86.89543658334135,105.2315982216332,101.2665021000545,120.20500413242277,116.90923900722105,107.0216561183013,89.78983312136852,62.70406629332364,32.52321863366428,5.721514960439175,0.0,0.0,0.0,0.0,0.0,0.0,0.0,0.0,0.0,0.0,0.0,2.6433974143858183,26.132085163533503,57.61795575813926,59.03999661212582,52.98381615349812,59.608985461709175,26.801416159910513,83.6166347437007,104.32823138717592,86.0590603511847,61.06437786018874,30.6661701346956,5.822144620547402,0.0,0.0,0.0,0.0,0.0,0.0,0.0,0.0,0.0,0.0,0.0,2.5597310398386934,25.362699533677457,36.57169361647553,65.34717619439486,101.04914203422071,86.89543658334135,116.2232322385975,112.60947738745381,103.49156764170469,87.34712000056999,63.18910125504529,32.23858045221529,5.9058109950945274,0.0,0.0,0.0,0.0,0.0,0.0,0.0,0.0,0.0,0.0,0.0,2.978062912574321,25.8143829509061,55.52687142109032,66.133525109812,80.43788753753914,35.316985511583255,76.02110799873176,96.16400330593822,80.55461794326469,46.87732086481634,30.41517101105423,14.22040853986541,5.437164292304788,0.0,0.0,0.0,0.0,0.0,0.0,0.0,0.0,0.0,0.0,0.0,2.4927404375380733,4.38314048099976,17.616803325175358,22.9202739261935,28.340474932937184,53.920822045763,79.91921351800987,47.4296339421532,44.635579550919644,26.95207313675825,22.535293597950886,13.58471660129601,5.9058109950945274,0.0,0.0,0.0,0.0,0.0,0.0,0.0,0.0,0.0,0.0,0.0,1.6060493753272984,9.218251892542755,59.190653588973554,62.95477790365042,74.91676935737263,79.50088164527425,74.98375995967324,84.38602037355675,75.36845277460127,70.55030464861937,48.85167479613975,31.48587059460576,6.4075217290626885,0.0,0.0,0.0,0.0,0.0,0.0,0.0,0.0,0.0,0.0,0.0,0.16733274909425125,1.5560220585877798,6.323855354515562,9.753601684318523,10.104942954753534,16.127771868888196,19.90857195581157,46.4256374475877,40.904806780735775,31.000548119569512,20.05922893265932,5.738478246000277,0.0,0.0,0.0,0.0,0.0,0.0,0.0,0.0,0.0,0.0,0.0,0.0,4.048762496125853,29.59547055114407,61.91771737790649,86.24278135921084,103.24056851806331,113.39582630287094,116.59124928127905,113.21181778153021,104.14422286583515,87.44746214736361,63.57379406997332,33.694260364009445,6.524827161417419,0.0,0.0,0.0,0.0,0.0,0.0,0.0,0.0,0.0,0.0,0.0,4.400103766560862,29.612146323390576,60.04399310669131,84.48636252035037,101.53417699594236,92.53357268254798,115.70455821906826,111.3044544525074,102.11984161777224,85.33970203806814,19.172537870448547,33.19226211672669,6.7925020573053025,0.0,0.0,0.0,0.0,0.0,0.0,0.0,0.0,0.0,0.0,0.0,4.517121685601,30.599179532394984,63.80840493468276,90.9108475349742,109.6650535326871,120.48935480055715,123.56775985992508,105.85061438795609,83.80035575172687,92.44990630800085,66.133525109812,28.62511311438617,6.8091778295518095,0.0,0.0,0.0,0.0,0.0,0.0,0.0,0.0,0.0,0.0,0.0,4.751445036995871,30.85017865603636,63.72445104682105,90.59285780903221,109.28007320444449,120.28867050696985,123.51744502987101,120.3220220514629,109.89937688408196,92.14859235430538,66.58520852704065,21.213594890757975,6.942871520838453,0.0,0.0,0.0,0.0,0.0,0.0,0.0,0.0,0.0,0.0,0.0,4.9521293305831335,30.9671965750765,61.48270973292435,88.93678111696536,107.20566463964205,117.7622910116242,120.80734452649915,117.4276255134357,106.87099914145355,60.39533437712633,63.12211065274465,33.37627063806745,7.428193995874702,0.0,0.0,0.0,0.0,0.0,0.0,0.0,0.0,0.0,0.0,0.0,5.219804226471016,31.167880868663765,61.68339402651162,86.22639310027893,103.09019905453016,112.69314376200093,115.40353177868737,100.58078284474556,103.40790126715756,86.56105859846744,63.32308245964652,34.44697022161898,7.595526744968952,0.0,0.0,0.0,0.0,0.0,0.0,0.0,0.0,0.0,0.0,0.0,5.336822145511157,31.853887637287283,62.369400795135135,89.02015997819788,106.63696330337326,116.55761022347143,120.08769870006806,116.85892417716693,81.47494806328304,90.3752102298838,65.38081525220247,34.39694290487946,7.4448697681212055,0.0,0.0,0.0,0.0,0.0,0.0,0.0,0.0,0.0,0.0,0.0,2.8107301634800694,11.761307160134942,37.97705869821557,64.94580760722033,81.75929873141746,87.26374113933744,91.83089014167795,109.53107232808584,99.74411909927431,83.5663199136466,60.71303658975372,32.43955225911716,7.2608612467804505,0.0,0.0,0.0,0.0,0.0,0.0,0.0,0.0,0.0,0.0,0.0,5.437164292304788,21.146604288457354,45.84026033907241,62.68710300776254,59.47500425710793,102.9228663054359,52.716141257610246,99.84446124606794,64.52747573448471,59.29099573576718,34.614302970713226,18.03484768459639,5.8051813349863,0.0,0.0,0.0,0.0,0.0,0.0,0.0,0.0,0.0,0.0,0.0,1.6227251475738045,10.439608452942032,49.73836585835053,36.772377910062794,71.67131906222502,83.33199656225172,84.97168499538664,40.85449195068167,40.085106320825616,40.15180940981164,29.009805929314194,16.51246468381622,4.918490272775527,0.0,0.0,0.0,0.0,0.0,0.0,0.0,0.0,0.0,0.0,0.0,5.788505562739796,15.291108123416944,44.11690553139038,61.23171060928298,40.536789738054274,92.248934501099,97.77005268126551,75.63612767048916,66.4348390635075,43.61519479742222,30.548864702340868,15.659125166098454,5.186165168663409,0.0,0.0,0.0,0.0,0.0,0.0,0.0,0.0,0.0,0.0,0.0,0.16733274909425125,15.575746304865925,3.697421225690845,5.688163415946161,21.84928682932737,44.100229759143865,56.898597445022745,44.98692082135464,40.469799135753654,46.040944632659674,37.341366759646185,21.180243346264962,6.089819516435286,0.0,0.0,0.0,0.0,0.0,0.0,0.0,0.0,0.0,0.0,0.0,0.0,18.720854453219907,19.791554036771434,18.97185357686128,74.61574291699174,62.95477790365042,36.95638643140356,47.11164421621121,30.766512281489234,26.918434078950643,25.19536678458321,6.4075217290626885,3.513412704350088,0.0,0.0,0.0,0.0,0.0,0.0,0.0,0.0,0.0,0.0,0.0,1.6563642053814116,5.085823021869778,12.5810076200451,47.295652737551954,107.0886467206019,115.93859405714852,119.25132246791136,102.42086805815315,107.32268255868216,90.62620935352518,64.57779056453882,35.30030973933675,8.013571104389985,0.0,0.0,0.0,0.0,0.0,0.0,0.0,0.0,0.0,0.0,0.0,6.4911881036098125,33.77792673855657,63.80811742136818,86.97910295788846,103.09019905453016,112.24146034477228,114.60021957770913,110.81941949078572,101.30014115786207,85.2057208334669,62.43639139743576,34.06227740669095,7.595526744968952,0.0,0.0,0.0,0.0,0.0,0.0,0.0,0.0,0.0,0.0,0.0,6.457836559116799,33.392946410313954,62.9381021314039,85.5237105594089,100.78146713833286,109.53107232808584,111.88983156102269,108.94569521957057,100.24611734655709,84.88801862083952,62.586760860968894,34.463645993865484,7.863201640856834,0.0,0.0,0.0,0.0,0.0,0.0,0.0,0.0,0.0,0.0,0.0,6.9095199763454405,33.694260364009445,63.57379406997332,86.71142806200058,102.75553355634165,111.72307383855764,114.11518461598749,115.65424338901416,101.78517611958375,86.51074376841329,63.95877439821593,35.249994909282634,8.16422808123773,0.0,0.0,0.0,0.0,0.0,0.0,0.0,0.0,0.0,0.0,0.0,7.0432136676320845,33.510251842668694,62.73741783781665,85.2057208334669,101.28317787230101,109.93244091526041,112.19114551471814,101.40048330465572,99.86113701831444,84.35266882906375,61.76706040105874,34.14594378123809,8.348236602578487,0.0,0.0,0.0,0.0,0.0,0.0,0.0,0.0,0.0,0.0,0.0,7.110204269932705,33.32624332132793,60.52902806841297,87.36379577281649,103.50824341395119,100.48015318463736,116.10592680624279,112.32512671931944,102.53817349050787,86.8454092666018,62.00138375245361,34.313276530332324,8.398551432632601,0.0,0.0,0.0,0.0,0.0,0.0,0.0,0.0,0.0,0.0,0.0,6.4911881036098125,28.10643909485691,53.034130983552245,75.78678464733689,54.439496065292275,58.48797104810353,100.71447653603222,99.19209353525206,91.0278654540143,67.22118797892463,61.09801691799634,30.04715396837272,8.582559953973359,0.0,0.0,0.0,0.0,0.0,0.0,0.0,0.0,0.0,0.0,0.0,7.8798774131033404,29.81283061697784,49.28639492780729,67.50553864705903,69.57994721186147,84.5030382925969,94.22328843242242,89.421816078687,71.30330201954351,41.32313865347141,29.946524308264486,21.447918242152845,6.19016166322892,0.0,0.0,0.0,0.0,0.0,0.0,0.0,0.0,0.0,0.0,0.0,1.8570484989686755,21.447918242152845,39.767116594883625,53.26816682163251,75.68644250054327,80.06958298154302,89.7228425190679,106.00098385148928,95.97999478459744,81.00630136049331,59.224005133466555,32.45622803136366,8.96725276890138,0.0,0.0,0.0,0.0,0.0,0.0,0.0,0.0,0.0,0.0,0.0,5.955838311834047,18.720854453219907,38.91406459048047,55.87821269152531,51.862801739892475,53.71985023886115,80.25359150288378,76.64012416505466,86.72839134756167,69.9816033123506,60.09402042343083,33.42658546812156,9.285242494843377,0.0,0.0,0.0,0.0,0.0,0.0,0.0,0.0,0.0,0.0,0.0,8.063885934444098,33.292604263520325,62.33604925064212,85.72439485299618,80.01955566480349,107.60732074013114,109.69840507718011,106.21863143063764,96.90003739130123,42.52753192830959,60.89704511109449,33.627269761708824,9.184900348049744,0.0,0.0,0.0,0.0,0.0,0.0,0.0,0.0,0.0,0.0,0.0,7.829562583049227,32.99157782313943,61.46574644736325,50.52442726045307,86.41040162161968,110.85277103527876,113.59651059645823,106.15164082833701,82.98065529181672,65.21348250310821,49.15270123652064,26.617407638569752,6.976510578646061,0.0,0.0,0.0,0.0,0.0,0.0,0.0,0.0,0.0,0.0,0.0,4.801472353735389,1.2713838771387955,17.967857082295772,35.38397611388387,80.01955566480349,54.506199154278285,47.47966125889272,73.19370206300519,74.04675406740834,38.56272332004545,26.11540939128699,18.620512306426264,9.70328685426441,0.0,0.0,0.0,0.0,0.0,0.0,0.0,0.0,0.0,0.0,0.0,8.716253645260002,37.30772770183857,69.26224499923407,93.68793864064665,110.40108761805011,119.76999648744062,121.77770196325704,117.29393182214905,107.22234041188854,90.49251566223856,66.95351308303675,36.62200844652965,9.820592286619142,0.0,0.0,0.0,0.0,0.0,0.0,0.0,0.0,0.0,0.0,0.0,8.732929417506508,35.88568684785203,64.49412418999171,87.14643570698271,102.37055322809904,110.90308586533287,113.16179046479068,110.45140244810423,100.61413438923859,85.65740425069555,63.306119174085424,35.8020204733049,9.786953228811537,0.0,0.0,0.0,0.0,0.0,0.0,0.0,0.0,0.0,0.0,0.0,4.9521293305831335,35.333661283829755,63.72445104682105,86.22639310027893,102.00282369873213,110.7357531162386,112.99417020238182,79.53423318976725,101.30014115786207,85.23935989127452,63.03844427819754,35.434003430623385,9.653259537524892,0.0,0.0,0.0,0.0,0.0,0.0,0.0,0.0,0.0,0.0,0.0,8.716253645260002,34.195971097977605,61.76706040105874,83.5663199136466,98.6900952879693,107.10532249284842,109.36373957899158,94.60798124735041,98.72373434577688,20.3269038285472,31.987581328573924,35.149652762489,10.322303020587302,0.0,0.0,0.0,0.0,0.0,0.0,0.0,0.0,0.0,0.0,0.0,9.117909745749127,27.95578211800917,61.08105363243523,82.6126382491352,97.3853598663375,105.81697533014851,93.80495655968676,71.42031993858366,27.63779239206717,74.41505862340445,48.282685946556356,34.66461780076734,10.52327482748916,0.0,0.0,0.0,0.0,0.0,0.0,0.0,0.0,0.0,0.0,0.0,9.034243371202,33.593918217215816,60.88036933884797,82.5959624768887,97.77005268126551,106.36928840748541,59.29099573576718,107.4233122187904,97.03401859590248,82.29464852319322,60.89704511109449,29.64549786788359,10.272275703847782,0.0,0.0,0.0,0.0,0.0,0.0,0.0,0.0,0.0,0.0,0.0,8.916937938847267,34.26296170027822,63.13907393830577,85.90840337433693,101.6514824282971,110.65208674169149,113.16179046479068,110.38441184580358,101.09916935096024,85.40640512705417,61.44935818843135,35.30030973933675,10.355942078394907,0.0,0.0,0.0,0.0,0.0,0.0,0.0,0.0,0.0,0.0,0.0,9.017567598955496,33.878268885350195,60.93068416890209,85.03867559768726,101.50082545144936,110.40108761805011,112.81044919435566,109.58138715813995,100.22944157431057,82.07728845735944,60.663009273014204,34.982320013394734,10.439608452942032,0.0,0.0,0.0,0.0,0.0,0.0,0.0,0.0,0.0,0.0,0.0,5.6211728136455426,32.75725447174455,55.52687142109032,74.465085940144,97.05069436814898,97.83704328356613,89.53883399772717,98.77376166251643,83.68333783268675,74.69940929153886,54.30551486069104,34.43029444937247,10.573302144228675,0.0,0.0,0.0,0.0,0.0,0.0,0.0,0.0,0.0,0.0,0.0,9.234927664789264,28.641788886632682,59.96032673214418,80.88957095476776,95.32762707378154,103.34091066485695,106.11828928384398,103.37454972266457,57.04925442187048,66.4348390635075,59.30767150801368,28.809121635726925,11.024985561457317,0.0,0.0,0.0,0.0,0.0,0.0,0.0,0.0,0.0,0.0,0.0,9.48592678843064,32.92458722083881,58.92297869308567,79.91921351800987,94.74196245195165,103.19054120132375,106.05129868154334,102.97289362217542,93.98896508102754,69.36258714602769,54.941206799260435,26.316381198188854,9.970961750152293,0.0,0.0,0.0,0.0,0.0,0.0,0.0,0.0,0.0,0.0,0.0,8.147552308991225,33.57695493165471,52.68278971311722,68.70993192189721,86.25974464477194,74.34806802110384,77.49317616945783,82.52897187458808,73.46137695889306,72.75869441802304,53.61950809206753,20.929244222623588,10.255599931601274,0.0,0.0,0.0,0.0,0.0,0.0,0.0,0.0,0.0,0.0,0.0,7.796211038556215,32.08821098868214,51.98010717224721,70.85133108900027,86.4270773938662,93.57092072160653,100.81481868282584,94.13962205787529,86.1594024979783,83.24833018770461,62.23541959053389,36.25399140384813,10.288951476094288,0.0,0.0,0.0,0.0,0.0,0.0,0.0,0.0,0.0,0.0,0.0,8.565884181726853,26.266066368134737,52.047097774547844,70.51695310412634,82.11064000185246,89.60582460002779,96.3646875995255,90.2748680830902,89.02015997819788,73.12671146070457,48.23265862981685,32.20522890772228,10.472959997435046,0.0,0.0,0.0,0.0,0.0,0.0,0.0,0.0,0.0,0.0,0.0,8.582559953973359,32.35588588457003,46.65996079898256,68.97760681778507,77.94485958668649,67.1038825465699,35.651651009771754,64.81182640261909,81.3242910864353,65.39749102444897,51.14344342677596,32.004544614135014,10.623616974282793,0.0,0.0,0.0,0.0,0.0,0.0,0.0,0.0,0.0,0.0,0.0,8.866910622107747,31.53589791134528,55.72755571467757,69.96464002678947,85.97539397663755,89.67281520232841,97.20106383168213,87.56476757971834,77.59351831625145,62.06808684143964,48.952016942933376,31.20151992647137,4.23277101746661,0.0,0.0,0.0,0.0,0.0,0.0,0.0,0.0,0.0,0.0,0.0,8.09723747893711,33.794602510803074,60.27802894477158,81.25730048413469,95.72899566095607,103.94325105893331,106.31897357743128,103.5585582440053,95.00963734783952,81.09025524835505,60.88036933884797,35.70167832651127,11.459993206439453,0.0,0.0,0.0,0.0,0.0,0.0,0.0,0.0,0.0,0.0,0.0,8.314885058085476,33.593918217215816,59.40830116812191,80.32086961849899,94.84230459874529,102.88922724762828,50.15641021777155,57.18294811315712,70.98531229360151,80.18688841389776,59.47500425710793,35.032634843448854,10.6402927465293,0.0,0.0,0.0,0.0,0.0,0.0,0.0,0.0,0.0,0.0,0.0,9.736925912072016,18.369513182784893,58.10327823317551,78.61419058306345,93.10256153213136,78.64754212755649,73.39438635659245,45.90696342805843,11.091976163757938,37.324690987399656,41.07213952983003,28.99313015706769,10.857652812363071,0.0,0.0,0.0,0.0,0.0,0.0,0.0,0.0,0.0,0.0,0.0,8.950576996654872,34.463645993865484,62.13507744374025,84.03467910312175,99.30911145429218,108.0423283851133,110.635410969445,92.70090543164223,100.04514553965521,84.70401009949875,63.74112681906757,37.57540259772645,11.593974411040694,0.0,0.0,0.0,0.0,0.0,0.0,0.0,0.0,0.0,0.0,0.0,9.368908869390502,33.27592849127381,58.973293523139795,79.48420587302775,93.90529870648041,102.08620255996463,104.93028426793774,102.62183986505501,94.40729695376316,80.58825700107228,44.25088673599162,30.180847659659356,12.012018770461724,0.0,0.0,0.0,0.0,0.0,0.0,0.0,0.0,0.0,0.0,0.0,9.151261290242136,33.710936136255945,38.194418764049345,80.75558975016651,52.498781191776466,104.34490715942245,105.43228251522049,80.45456330978564,95.04298889233256,80.87260766920667,61.348728528323115,36.488027241928414,11.844686021367474,0.0,0.0,0.0,0.0,0.0,0.0,0.0,0.0,0.0,0.0,0.0,9.151261290242136,33.359594865820945,59.341310565821296,80.32086961849899,93.88862293423391,76.99146543548966,106.13496505609051,102.28688685355192,94.1899368879294,80.47123908203214,60.47900075167344,36.17032502930101,12.179351519555974,0.0,0.0,0.0,0.0,0.0,0.0,0.0,0.0,0.0,0.0,0.0,9.452575243937627,23.873668077390302,58.73897017174491,78.93189279569087,93.00221938533771,101.28317787230101,103.75924253759257,100.6308101614851,92.566924227041,58.25364769670866,41.28949959566381,34.39694290487946,11.175642538305066,0.0,0.0,0.0,0.0,0.0,0.0,0.0,0.0,0.0,0.0,0.0,9.452575243937627,32.85759661853818,58.086602460929015,78.81516238996531,93.35327314245814,55.47655659103621,74.08039312521595,16.26146556017484,89.52215822548065,80.08625875378952,62.386076567381636,37.140682466058905,11.51030803649357,0.0,0.0,0.0,0.0,0.0,0.0,0.0,0.0,0.0,0.0,0.0,9.251603437035769,32.99157782313943,59.173977816727025,79.95256506250291,94.72528667970516,71.35332933628301,107.10532249284842,84.95500922314014,40.3527812167135,4.299474106452635,6.574854478156937,6.0728562308741845,3.563440021089605,0.0,0.0,0.0,0.0,0.0,0.0,0.0,0.0,0.0,0.0,0.0,9.251603437035769,33.02492936763244,58.43765621804942,79.38357621291951,94.13962205787529,88.35082898182087,45.92392671361954,68.7102194352118,95.59530196966942,80.6385718311264,61.01435054344921,31.48587059460576,12.815043458125375,0.0,0.0,0.0,0.0,0.0,0.0,0.0,0.0,0.0,0.0,0.0,5.269831543210536,32.30557105451591,57.417271464552,63.42342460644015,93.2359677101034,65.53147222905022,41.25614805117078,62.30241019283451,79.56787224757484,52.68278971311722,14.421380346767268,0.9200426067037872,11.861649306928575,0.0,0.0,0.0,0.0,0.0,0.0,0.0,0.0,0.0,0.0,0.0,9.251603437035769,32.64023655270441,58.588313194897175,79.88557446020226,93.28628254015752,73.26069266530581,52.2644578403816,77.20882550132343,80.6719233756194,80.70527492011244,59.190653588973554,15.692764223906064,7.12688004217921,0.0,0.0,0.0,0.0,0.0,0.0,0.0,0.0,0.0,0.0,0.0,9.234927664789264,32.74057869949805,58.35427735681688,79.29990983837239,94.03899239776705,68.64322883291118,23.873668077390302,91.51290041573596,82.91395220283069,60.579342898467075,7.177194872233324,12.5810076200451,9.10123397350262,0.0,0.0,0.0,0.0,0.0,0.0,0.0,0.0,0.0,0.0,0.0,5.70483918819267,20.6448935544892,17.231822996932742,18.754205997712923,31.20151992647137,44.40125619952475,85.89144008877581,75.35177700235477,22.819644266085273,4.349788936506749,19.440212766336426,14.10339062082527,8.498893579426232,0.0,0.0,0.0,0.0,0.0,0.0,0.0,0.0,0.0,0.0,0.0,9.000604313394392,32.69026386944393,58.47129527585702,79.81887137121623,92.98525609977659,83.41566293679884,104.82994212114409,101.63480665605059,93.35327314245814,79.88557446020226,61.98470798020711,37.39139407638569,12.263017894103102,0.1170179190401379,0.0,0.0,0.0,0.0,0.0,0.0,0.0,0.0,0.0,0.0,7.9132289575963535,32.69026386944393,59.47500425710793,81.25758799744929,97.01734282365595,77.30916764811707,96.78301947226109,74.18073527200958,87.24677785377634,78.06216501904119,62.85443575685679,37.02337703370417,13.568040829049506,0.1170179190401379,0.0,0.0,0.0,0.0,0.0,0.0,0.0,0.0,0.0,0.0,7.3612033935740815,32.47290380361017,57.91926971183476,73.02636931391095,93.05224670207724,89.82347217917616,86.0590603511847,96.2476696804853,66.20051571211262,69.12826379463283,61.96774469464601,37.69270803008118,12.246342121856596,0.133981204601239,0.0,0.0,0.0,0.0,0.0,0.0,0.0,0.0,0.0,0.0,8.78324424756062,33.66062130620183,60.328343774825704,81.17392162290216,86.72839134756167,91.34556766664171,112.02381276562392,108.27636422319357,99.91145184836857,85.89172760209044,63.49041520874078,38.62942640903147,12.028982056022825,0.2509991236413769,0.0,0.0,0.0,0.0,0.0,0.0,0.0,0.0,0.0,0.0,7.695868891762585,27.186108974838533,49.01872003191939,71.15264504269575,83.73336514942626,91.14488337305448,96.28130873829294,102.62183986505501,94.05595568332815,80.77226552241305,61.532737049663886,37.441708906439814,12.413674870950846,0.10034214679363178,0.0,0.0,0.0,0.0,0.0,0.0,0.0,0.0,0.0,0.0,8.16422808123773,30.164171887412852,48.66737876148439,46.96098723936346,39.867458741677254,65.07950129850697,88.90314205915777,65.07950129850697,82.47865704453397,66.70251395939538,52.01345871674022,13.016015265027232,10.656968518775805,0.0,0.0,0.0,0.0,0.0,0.0,0.0,0.0,0.0,0.0,0.0,7.9132289575963535,24.97771920543484,58.98996929538629,28.909463782520557,10.707283348829916,7.846238355295733,32.08821098868214,60.328343774825704,102.32052591135952,73.96337520617583,47.730660382534104,34.01196257663684,13.752049350390262,0.2676748958878831,0.0,0.0,0.0,0.0,0.0,0.0,0.0,0.0,0.0,0.0,0.0,7.528536142668332,30.147496115166344,46.24162892624693,83.43233870904534,96.93367644910884,111.05345532886602,92.44990630800085,81.55861443783017,44.76956075552087,55.62721356788394,28.842473180219933,12.363360040896733,0.133981204601239,0.0,0.0,0.0,0.0,0.0,0.0,0.0,0.0,0.0,0.0,7.4448697681212055,32.221904679968794,48.93505365737226,78.89854125119784,93.11894979106329,101.68483397279013,92.83488663624348,88.13346891598711,94.94264674553894,80.43788753753914,61.38236758613073,37.67603225783468,12.765016141385855,0.2509991236413769,0.0,0.0,0.0,0.0,0.0,0.0,0.0,0.0,0.0,0.0,8.649263042959383,31.90420246734138,57.7349736771794,78.6811811853641,93.77160501519377,103.10687482677666,105.88396593244913,62.352725022888634,96.95006470804077,82.04393691286644,59.508643314915545,38.378714798704706,12.781691913632365,0.4016561004891221,0.0,0.0,0.0,0.0,0.0,0.0,0.0,0.0,0.0,0.0,8.063885934444098,31.75354549049364,58.13662977766853,68.44225702600932,52.331448442682216,20.895605164815983,22.831432311983665,22.831432311983665,2.295793817040544,0.0,0.0,0.0,0.0,0.0,0.0,0.0,0.0,0.0,0.0,0.0,0.0,0.0,0.0,0.0,0.0,0.0,0.0,0.0,0.0,0.0,0.0,0.0,0.0,0.0,0.0,0.0,0.0,0.0,0.0,0.0,0.0,0.0,0.0,0.0,0.0,0.0,0.0,0.0,0.0,0.0,0.0,0.0,0.0,0.0,19.94221101361918,19.055519951408407,35.434003430623385,46.040944632659674,49.13602546427413,37.4083573619468,12.882034060425992,0.0,0.0,0.0,0.0,0.0,0.0,0.0,0.0,0.0,0.0,0.0,5.119462079677387,28.742131033426308,55.05822471830057,78.88186547895134,66.61884758484824,28.909463782520557,77.61048160181254,80.25359150288378,63.49041520874078,65.1631676730541,31.51922213909877,37.96038292596907,7.244185474533944,0.0,0.0,0.0,0.0,0.0,0.0,0.0,0.0,0.0,0.0,0.0,8.983928541147886,18.03484768459639,46.29194375630105,61.516061277417364,3.4964494187889854,8.063885934444098,11.51030803649357,24.760359139601075,52.565771794077094,78.93218030900545,50.675084237300794,1.7400305799285374,13.032691037273741,0.0,0.0,0.0,0.0,0.0,0.0,0.0,0.0,0.0,0.0,0.0,7.829562583049227,31.000548119569512,56.53058040234122,77.76085106534569,92.0818892653193,104.71292420210396,107.7410144314178,100.73115230827874,92.93494126972251,68.81027406869083,60.512352296166455,37.04005280595069,14.354389744466648,0.0,0.0,0.0,0.0,0.0,0.0,0.0,0.0,0.0,0.0,0.0,8.247894455784857,29.829506389224342,54.1884969416509,76.74046631184828,92.96858032753009,80.55461794326469,87.93278462239985,103.72589099309955,94.84230459874529,80.354221162992,59.0736356699334,36.28734294834115,12.43035064319735,0.0,0.0,0.0,0.0,0.0,0.0,0.0,0.0,0.0,0.0,0.0,8.130876536744719,30.080505512865724,54.707170961180154,75.41876760465539,80.78894129465955,92.73425697613523,89.3881770208794,88.25048683502727,79.26655829387937,69.02792164783921,53.234815277139504,36.10333442700039,13.568040829049506,0.0,0.0,0.0,0.0,0.0,0.0,0.0,0.0,0.0,0.0,0.0,7.796211038556215,29.49484089103584,53.536129230835,73.74572762702745,89.45516762318003,74.93373264293373,62.52005777198288,100.46347741239084,15.308071408978044,24.191657803332294,27.186108974838533,37.609041655534064,12.631034936784618,0.0,0.0,0.0,0.0,0.0,0.0,0.0,0.0,0.0,0.0,0.0,7.846238355295733,29.64549786788359,54.02116419255665,74.34806802110384,89.23780755734627,98.13806972394705,66.51850543805462,62.43639139743576,93.35327314245814,79.14954037483925,60.47900075167344,37.64239320002707,14.337713972220143,0.10034214679363178,0.0,0.0,0.0,0.0,0.0,0.0,0.0,0.0,0.0,0.0,7.3945549380670945,30.113857057358732,55.57689873782983,76.84080845864192,91.99822289077221,100.7314398215933,93.7713175018792,88.66910622107746,54.389181235238155,70.56698042086587,56.195914904152716,35.45096671618449,14.03640001852465,0.10034214679363178,0.0,0.0,0.0,0.0,0.0,0.0,0.0,0.0,0.0,0.0,7.110204269932705,28.54144673983904,45.03723565140876,68.22489696017554,84.30235399900963,81.17392162290216,83.70030111824784,60.96403571339509,74.21408681650261,62.52005777198288,54.60654130107193,35.400651886130376,4.885138728282514,0.0,0.0,0.0,0.0,0.0,0.0,0.0,0.0,0.0,0.0,0.0,1.8067336689145617,9.586268935224274,26.885082534457634,31.134529324170753,63.640784672273924,88.76944836787114,82.82999831496899,82.37831489774031,74.90009358512611,57.50093783909912,39.96780088847089,30.48216161335485,11.727668102327335,0.0,0.0,0.0,0.0,0.0,0.0,0.0,0.0,0.0,0.0,0.0,7.3278518490810685,18.720854453219907,28.99313015706769,50.190049275579156,76.22179229231905,76.82413268639543,71.73802215121104,89.48851916767305,88.3844680396285,66.1671641676196,52.5824475663236,27.186108974838533,9.653259537524892,0.0,0.0,0.0,0.0,0.0,0.0,0.0,0.0,0.0,0.0,0.0,6.2571522655295375,28.60814982882507,52.5991233385701,73.19370206300519,66.83620765068203,77.67718469079858,33.77792673855657,96.04698538689806,85.25574815020644,61.91771737790649,15.860096973000314,6.993186350892566,0.0,0.0,0.0,0.0,0.0,0.0,0.0,0.0,0.0,0.0,0.0,0.0,7.277537019026957,28.641788886632682,52.64915065530962,73.82939400157457,90.09085956174944,55.44320504654318,90.59285780903221,91.47954887124297,58.32063829900928,72.85903656481669,47.496337031139234,31.736869718247128,9.117909745749127,0.0,0.0,0.0,0.0,0.0,0.0,0.0,0.0,0.0,0.0,0.0,6.8425293740448225,29.04315747380721,54.77387405016618,67.28789106791065,78.06216501904119,82.42862972779444,67.27121529566415,63.90845956816181,79.53423318976725,80.72223820567352,54.62350458663303,35.61801195196414,13.93605787173102,0.10034214679363178,0.0,0.0,0.0,0.0,0.0,0.0,0.0,0.0,0.0,0.0,7.0432136676320845,28.725455261179803,53.8538314434624,75.33510123010826,90.81021787486593,100.07878459746284,91.04454122626079,102.45421960264616,94.35726963702363,81.27426376969579,61.85072677560587,37.72605957457419,12.798367685878867,0.0,0.0,0.0,0.0,0.0,0.0,0.0,0.0,0.0,0.0,0.0,6.926195748591947,28.60814982882507,47.06132938615709,64.94580760722033,60.512352296166455,24.89434034420232,16.4624373670767,40.536789738054274,79.70156593886148,58.404304673556396,48.0653258807226,37.47506045093282,10.305627248340793,0.0,0.0,0.0,0.0,0.0,0.0,0.0,0.0,0.0,0.0,0.0,5.955838311834047,20.15957107945295,54.8241888802203,31.18455664091027,73.9297361483682,73.4947285033861,17.298813599233362,25.1620152400902,48.01501105066848,46.609645968928454,37.190709782798436,20.72855992903632,4.048762496125853,0.0,0.0,0.0,0.0,0.0,0.0,0.0,0.0,0.0,0.0,0.0,3.0617292871214463,21.31393703755161,7.729220436255598,20.745235701282827,24.89434034420232,47.22866213525134,49.33670975786139,54.77387405016618,57.88563065402714,58.521610105911144,7.3612033935740815,18.52017015963264,11.526983808740072,0.0,0.0,0.0,0.0,0.0,0.0,0.0,0.0,0.0,0.0,0.0,2.2417413138966955,16.947472328798355,25.580059599511234,42.69486467740384,97.63635898997887,82.04393691286644,106.97134128824716,70.650646795413,44.35122888278525,77.52681522726543,63.03844427819754,38.211382049610435,13.317041705408128,0.0,0.0,0.0,0.0,0.0,0.0,0.0,0.0,0.0,0.0,0.0,5.6044970413990365,29.277480825202073,57.065930194116994,82.11064000185246,98.77376166251643,43.430898762766866,90.2248407663507,106.2019556583911,97.63607147666427,84.40269614580328,64.29343989640442,29.160462906161943,12.212990577363586,0.0,0.0,0.0,0.0,0.0,0.0,0.0,0.0,0.0,0.0,0.0,6.089819516435286,28.809121635726925,55.25919652520243,77.17547395683043,92.53357268254798,101.80185189183024,73.12671146070457,103.39122549491108,64.07579231725606,82.2446212064537,62.03473529694664,37.59236588328755,13.551365056803,0.0,0.0,0.0,0.0,0.0,0.0,0.0,0.0,0.0,0.0,0.0,6.424197501309194,28.03944849255629,45.68960336222465,68.64322883291118,80.87260766920667,90.39217351544491,102.5548492627544,100.07878459746284,46.057620404906174,60.194362570224456,60.9473599411486,36.973349716964655,11.794658704627954,0.0,0.0,0.0,0.0,0.0,0.0,0.0,0.0,0.0,0.0,0.0,6.19016166322892,27.571089303081145,52.749492802103255,74.44841016789748,90.0071931872023,99.25908413755266,102.45450711596077,101.6178433704895,93.77160501519377,80.6885991478659,61.466033960677855,37.09036763600479,13.16638472856038,0.0,0.0,0.0,0.0,0.0,0.0,0.0,0.0,0.0,0.0,0.0,5.5208306668519125,27.77177359666841,54.439496065292275,76.65679993730116,68.42558125376281,36.90635911466404,106.77065699465989,103.10687482677666,99.0414365584043,85.35637781031465,65.02947398176747,38.378714798704706,12.263017894103102,0.0,0.0,0.0,0.0,0.0,0.0,0.0,0.0,0.0,0.0,0.0,4.9688051028296405,27.654755677628273,50.77542638409444,53.084158300291755,24.74368336735457,63.13907393830577,90.82689364711244,82.2612969787002,68.04088843883478,67.68954716839978,46.040944632659674,31.134529324170753,12.145999975062963,0.0,0.0,0.0,0.0,0.0,0.0,0.0,0.0,0.0,0.0,0.0,4.6341396046411365,22.61895997249801,46.82729354807681,70.26595398048497,77.59351831625145,90.54283049229264,104.99727487023834,87.96613616689287,81.00658887380791,74.90009358512611,61.38236758613073,32.05457193087454,11.543659580986578,0.0,0.0,0.0,0.0,0.0,0.0,0.0,0.0,0.0,0.0,0.0,4.801472353735389,27.55441353083464,54.891179482520904,77.04149275222919,92.68394214608112,101.86884249413087,73.41106212883895,13.300365933161624,45.957278258112545,78.66450541311758,64.87881700491971,33.610593989462316,11.861649306928575,0.0,0.0,0.0,0.0,0.0,0.0,0.0,0.0,0.0,0.0,0.0,5.3704612033187615,21.81593528483436,45.22124417274951,59.357986338067796,81.60892926788429,51.6454416740587,42.66151313291082,60.428685921619326,67.02021617202277,57.065930194116994,37.92674386816146,17.13148085013911,6.942871520838453,0.0,0.0,0.0,0.0,0.0,0.0,0.0,0.0,0.0,0.0,0.0,2.6433974143858183,18.771169283274013,20.61125449668159,21.73226891028724,62.52005777198288,53.33515742393313,54.5228749265248,81.9266314805117,77.12515912677631,73.52836756119369,43.364195673780834,18.118514059143518,11.82801024912097,0.0,0.0,0.0,0.0,0.0,0.0,0.0,0.0,0.0,0.0,0.0,4.985480875076147,26.96874890900476,39.66677444809,39.599783845789375,93.75464172963268,76.72379053960178,76.20511652007252,104.14422286583515,95.5950144563548,82.46226878560206,43.69857365865474,27.755097824421906,3.8477906892239933,0.0,0.0,0.0,0.0,0.0,0.0,0.0,0.0,0.0,0.0,0.0,4.885138728282514,26.985424681251267,53.385472253987245,75.53578552369552,91.2455130331627,100.3464594933507,103.59190978849831,101.23315055556148,37.39139407638569,81.9433072527582,60.93068416890209,36.40436086738129,11.811334476874464,0.0,0.0,0.0,0.0,0.0,0.0,0.0,0.0,0.0,0.0,0.0,4.517121685601,26.701074013116873,53.435499570726776,75.38541606016236,90.86053270492006,100.04514553965521,79.33354889617998,105.68328163886187,93.35327314245814,80.50459062652514,61.24838638152949,36.354333550641776,10.171933557054153,0.0,0.0,0.0,0.0,0.0,0.0,0.0,0.0,0.0,0.0,0.0,4.216095245220103,21.046262141663718,53.30180587944014,75.56942458150313,91.54653947354359,100.61413438923859,103.82623313989319,101.46747390695637,93.57063320829191,59.592309689462674,60.72971236200023,35.53434557741703,11.627325955533705,0.0,0.0,0.0,0.0,0.0,0.0,0.0,0.0,0.0,0.0,0.0,2.526091982031085,14.153705450879386,45.60593698767754,42.912512256552205,65.84917444167762,81.85964087821108,34.89865363884762,32.02122038638153,41.25614805117078,70.78462800001424,62.352725022888634,36.22035234604053,11.844686021367474,0.0,0.0,0.0,0.0,0.0,0.0,0.0,0.0,0.0,0.0,0.0,4.38314048099976,26.098733619040487,53.31848165168663,76.22179229231905,91.54653947354359,80.17021264165125,105.68328163886187,72.85903656481669,55.91156423601834,65.63181437584385,61.21503483703648,35.70167832651127,10.405969395134424,0.0,0.0,0.0,0.0,0.0,0.0,0.0,0.0,0.0,0.0,0.0,4.4167795388073685,26.082057846793987,53.435499570726776,75.88712679413051,91.73026048156973,78.29620085712149,77.82784166764633,49.53739405144866,34.597627198466725,41.172481676623654,53.485814400780875,35.13297699024248,11.275984685098695,0.0,0.0,0.0,0.0,0.0,0.0,0.0,0.0,0.0,0.0,0.0,4.517121685601,25.730716576358976,52.348124214928724,74.93344512961912,91.56321524579008,101.01579048972772,73.4947285033861,102.88922724762828,66.58520852704065,73.82939400157457,44.16722036144449,21.330612809798115,7.645554061708472,0.0,0.0,0.0,0.0,0.0
...